REMARK  10 active torsions:
REMARK  status: ('A' for Active; 'I' for Inactive)
REMARK    1  A    between atoms: O5_5  and  C21_21 
REMARK    2  A    between atoms: O8_8  and  N11_11 
REMARK       I    between atoms: N10_10  and  C22_22 
REMARK    3  A    between atoms: N10_10  and  C16_16 
REMARK    4  A    between atoms: N14_14  and  C31_31 
REMARK    5  A    between atoms: C18_18  and  C21_21 
REMARK    6  A    between atoms: C20_20  and  C23_23 
REMARK    7  A    between atoms: C22_22  and  C24_24 
REMARK    8  A    between atoms: C23_23  and  C25_25 
REMARK    9  A    between atoms: C24_24  and  C27_27 
REMARK   10  A    between atoms: C25_25  and  C26_26 
ROOT
HETATM    1  S1          0       0.535  -1.676  -0.770  1.00  0.00    -0.136 SA
HETATM    2  O4          0      -0.784   2.611   0.459  1.00  0.00    -0.271 OA
HETATM    3  N9          0      -1.060   0.395  -0.303  1.00  0.00    -0.293 N 
HETATM    4  C15         0      -0.157  -0.103  -1.326  1.00  0.00     0.187 C 
HETATM    5  C16         0       0.694   1.156  -1.053  1.00  0.00     0.211 C 
HETATM    6  C17         0      -0.499   1.617  -0.167  1.00  0.00     0.251 C 
HETATM    7  C18         0      -2.093  -0.325   0.210  1.00  0.00     0.119 C 
HETATM    8  C19         0      -1.099  -2.488  -0.684  1.00  0.00     0.117 C 
HETATM    9  C20         0      -2.175  -1.665   0.021  1.00  0.00    -0.015 C 
ENDROOT
BRANCH   9  10
HETATM   10  C23         0      -3.276  -2.492   0.478  1.00  0.00     0.012 C 
BRANCH  10  11
HETATM   11  C25         0      -4.548  -2.097   0.407  1.00  0.00     0.021 C 
BRANCH  11  12
HETATM   12  C26         0      -4.990  -0.798  -0.130  1.00  0.00     0.030 A 
HETATM   13  S2          0      -4.612  -0.362  -1.746  1.00  0.00    -0.081 SA
HETATM   14  C32         0      -5.432   1.126  -1.510  1.00  0.00     0.167 A 
HETATM   15  N13         0      -5.962   1.321  -0.323  1.00  0.00    -0.258 NA
HETATM   16  C28         0      -5.707   0.217   0.467  1.00  0.00     0.048 A 
HETATM   17  C30         0      -6.220   0.228   1.854  1.00  0.00     0.072 C 
ENDBRANCH  11  12
ENDBRANCH  10  11
ENDBRANCH   9  10
BRANCH   5  18
HETATM   18  N10         0       1.947   1.009  -0.314  1.00  0.00    -0.339 N 
HETATM   19  H38         0       1.924   0.866   0.693  1.00  0.00     0.163 HD
HETATM   20  C22         0       3.187   1.047  -0.929  1.00  0.00     0.275 C 
HETATM   21  O7          0       3.443   1.200  -2.113  1.00  0.00    -0.266 OA
BRANCH  20  22
HETATM   22  C24         0       4.329   0.868   0.036  1.00  0.00     0.180 C 
HETATM   23  N11         0       4.865   1.900   0.614  1.00  0.00    -0.126 NA
BRANCH  23  24
HETATM   24  O8          0       4.248   3.096   0.220  1.00  0.00    -0.261 OA
HETATM   25  C33         0       4.891   4.166   0.895  1.00  0.00     0.240 C 
ENDBRANCH  23  24
BRANCH  22  26
HETATM   26  C27         0       4.824  -0.506   0.316  1.00  0.00     0.102 A 
HETATM   27  N12         0       4.241  -1.596  -0.302  1.00  0.00    -0.222 NA
HETATM   28  C31         0       4.848  -2.689   0.104  1.00  0.00     0.164 A 
HETATM   29  S3          0       6.128  -2.480   1.228  1.00  0.00    -0.062 SA
HETATM   30  C29         0       5.862  -0.787   1.180  1.00  0.00     0.087 A 
BRANCH  28  31
HETATM   31  N14         0       4.524  -3.943  -0.309  1.00  0.00    -0.378 N 
HETATM   32  H50         0       3.773  -4.110  -0.971  1.00  0.00     0.158 HD
HETATM   33  H51         0       5.018  -4.762   0.029  1.00  0.00     0.158 HD
ENDBRANCH  28  31
ENDBRANCH  22  26
ENDBRANCH  20  22
ENDBRANCH   5  18
BRANCH   7  34
HETATM   34  C21         0      -3.079   0.421   1.010  1.00  0.00     0.194 C 
HETATM   35  O6          0      -3.689  -0.047   1.948  1.00  0.00    -0.645 OA
BRANCH  34  36
HETATM   36  O5          0      -3.182   1.676   0.532  1.00  0.00    -0.772 OA
HETATM   37  H41         0      -3.811   2.222   1.049  1.00  0.00     0.167 HD
ENDBRANCH  34  36
ENDBRANCH   7  34
TORSDOF 10
