REMARK  8 active torsions:
REMARK  status: ('A' for Active; 'I' for Inactive)
REMARK    1  A    between atoms: O4_4  and  C20_20 
REMARK    2  A    between atoms: O7_7  and  C27_27 
REMARK    3  A    between atoms: N10_10  and  C14_14 
REMARK       I    between atoms: N10_10  and  C19_19 
REMARK    4  A    between atoms: C16_16  and  C20_20 
REMARK    5  A    between atoms: C19_19  and  C21_21 
REMARK    6  A    between atoms: C21_21  and  C22_22 
REMARK    7  A    between atoms: C23_23  and  C24_24 
REMARK    8  A    between atoms: C24_24  and  C27_27 
ROOT
HETATM    1  S1          0      -1.565   1.260  -2.273  1.00  0.00    -0.137 SA
HETATM    2  O3          0      -2.039   0.312   2.281  1.00  0.00    -0.271 OA
HETATM    3  N9          0      -2.708   0.968   0.121  1.00  0.00    -0.294 N 
HETATM    4  C13         0      -1.882   1.912  -0.612  1.00  0.00     0.187 C 
HETATM    5  C14         0      -0.810   1.648   0.461  1.00  0.00     0.210 C 
HETATM    6  C15         0      -1.922   0.865   1.212  1.00  0.00     0.251 C 
HETATM    7  C16         0      -3.876   0.482  -0.356  1.00  0.00     0.109 C 
HETATM    8  C17         0      -3.337   1.193  -2.729  1.00  0.00     0.105 C 
HETATM    9  C18         0      -4.212   0.597  -1.652  1.00  0.00     0.020 C 
ENDROOT
BRANCH   5  10
HETATM   10  N10         0       0.345   0.806   0.097  1.00  0.00    -0.341 N 
HETATM   11  C19         0       1.206   0.279   1.047  1.00  0.00     0.254 C 
HETATM   12  O5          0       1.105   0.449   2.260  1.00  0.00    -0.268 OA
HETATM   13  H30         0       0.535   0.613  -0.883  1.00  0.00     0.163 HD
BRANCH  11  14
HETATM   14  C21         0       2.357  -0.498   0.477  1.00  0.00     0.058 C 
HETATM   15  C23         0       2.207  -1.833   0.354  1.00  0.00     0.003 C 
BRANCH  15  16
HETATM   16  C24         0       0.965  -2.625   0.648  1.00  0.00     0.138 C 
BRANCH  16  17
HETATM   17  C27         0       0.116  -2.761  -0.597  1.00  0.00     0.142 C 
HETATM   18  O8          0       0.351  -2.254  -1.685  1.00  0.00    -0.650 OA
BRANCH  17  19
HETATM   19  O7          0      -0.980  -3.532  -0.362  1.00  0.00    -0.776 OA
HETATM   20  H41         0      -1.540  -3.623  -1.162  1.00  0.00     0.167 HD
ENDBRANCH  17  19
ENDBRANCH  16  17
ENDBRANCH  15  16
BRANCH  14  21
HETATM   21  C22         0       3.560   0.235   0.188  1.00  0.00     0.081 A 
HETATM   22  N11         0       4.655  -0.459  -0.250  1.00  0.00    -0.224 NA
HETATM   23  C26         0       5.627   0.404  -0.448  1.00  0.00     0.164 A 
HETATM   24  N12         0       6.870   0.070  -0.886  1.00  0.00    -0.378 N 
HETATM   25  S2          0       5.266   2.050  -0.122  1.00  0.00    -0.062 SA
HETATM   26  H39         0       7.125  -0.890  -1.090  1.00  0.00     0.158 HD
HETATM   27  H40         0       7.593   0.769  -1.026  1.00  0.00     0.158 HD
HETATM   28  C25         0       3.676   1.587   0.324  1.00  0.00     0.086 A 
ENDBRANCH  14  21
ENDBRANCH  11  14
ENDBRANCH   5  10
BRANCH   7  29
HETATM   29  C20         0      -4.782  -0.247   0.533  1.00  0.00     0.193 C 
HETATM   30  O6          0      -5.501  -1.166   0.185  1.00  0.00    -0.645 OA
BRANCH  29  31
HETATM   31  O4          0      -4.693   0.256   1.783  1.00  0.00    -0.772 OA
HETATM   32  H35         0      -5.287  -0.208   2.410  1.00  0.00     0.167 HD
ENDBRANCH  29  31
ENDBRANCH   7  29
TORSDOF 8
