REMARK  11 active torsions:
REMARK  status: ('A' for Active; 'I' for Inactive)
REMARK    1  A    between atoms: S2_2  and  C27_27 
REMARK    2  A    between atoms: S2_2  and  C38_38 
REMARK    3  A    between atoms: O5_5  and  C29_29 
REMARK    4  A    between atoms: O10_10  and  C42_42 
REMARK       I    between atoms: N12_12  and  C26_26 
REMARK    5  A    between atoms: N12_12  and  C21_21 
REMARK       I    between atoms: N13_13  and  C31_31 
REMARK    6  A    between atoms: N13_13  and  C28_28 
REMARK       I    between atoms: N14_14  and  C31_31 
REMARK    7  A    between atoms: N15_15  and  C39_39 
REMARK    8  A    between atoms: C23_23  and  C29_29 
REMARK    9  A    between atoms: C24_24  and  C27_27 
REMARK   10  A    between atoms: C26_26  and  C28_28 
REMARK   11  A    between atoms: C28_28  and  C30_30 
ROOT
HETATM    1  S1          0       2.054   0.564  -1.491  1.00  0.00    -0.136 SA
HETATM    2  O3          0       1.432  -3.558   0.566  1.00  0.00    -0.271 OA
HETATM    3  N11         0       2.533  -1.940  -0.748  1.00  0.00    -0.293 N 
HETATM    4  C20         0       1.763  -1.203  -1.733  1.00  0.00     0.187 C 
HETATM    5  C21         0       0.508  -1.792  -1.051  1.00  0.00     0.210 C 
HETATM    6  C22         0       1.511  -2.664  -0.243  1.00  0.00     0.251 C 
HETATM    7  C23         0       3.869  -1.782  -0.563  1.00  0.00     0.116 C 
HETATM    8  C24         0       4.535  -0.722  -1.079  1.00  0.00    -0.027 C 
HETATM    9  C25         0       3.845   0.426  -1.813  1.00  0.00     0.113 C 
ENDROOT
BRANCH   5  10
HETATM   10  N12         0      -0.317  -0.910  -0.208  1.00  0.00    -0.343 N 
HETATM   11  C26         0      -1.536  -0.396  -0.634  1.00  0.00     0.245 C 
HETATM   12  O4          0      -2.038  -0.620  -1.734  1.00  0.00    -0.271 OA
HETATM   13  H47         0       0.023  -0.642   0.713  1.00  0.00     0.163 HD
BRANCH  11  14
HETATM   14  C28         0      -2.169   0.528   0.399  1.00  0.00     0.211 C 
BRANCH  14  15
HETATM   15  N13         0      -3.603   0.373   0.322  1.00  0.00    -0.325 N 
HETATM   16  C31         0      -4.288  -0.615   1.023  1.00  0.00     0.326 C 
HETATM   17  O7          0      -3.710  -1.423   1.756  1.00  0.00    -0.247 OA
HETATM   18  N14         0      -5.703  -0.600   0.834  1.00  0.00    -0.260 N 
HETATM   19  C32         0      -6.476  -1.519   1.667  1.00  0.00     0.157 C 
HETATM   20  C36         0      -6.417   0.297   0.011  1.00  0.00     0.319 C 
HETATM   21  C33         0      -7.655  -2.066   0.893  1.00  0.00     0.146 C 
HETATM   22  N15         0      -8.492  -0.963   0.462  1.00  0.00    -0.343 N 
HETATM   23  C37         0      -7.927   0.231   0.044  1.00  0.00     0.312 C 
HETATM   24  O9          0      -8.528   1.234  -0.323  1.00  0.00    -0.262 OA
HETATM   25  O8          0      -5.945   1.141  -0.744  1.00  0.00    -0.262 OA
HETATM   26  H53         0      -4.115   0.972  -0.315  1.00  0.00     0.165 HD
BRANCH  22  27
HETATM   27  C39         0      -9.927  -1.183   0.400  1.00  0.00     0.122 C 
HETATM   28  C43         0     -10.340  -1.786  -0.926  1.00  0.00     0.026 C 
ENDBRANCH  22  27
ENDBRANCH  14  15
BRANCH  14  29
HETATM   29  C30         0      -1.746   1.965   0.201  1.00  0.00    -0.026 A 
HETATM   30  C35         0      -1.099   2.650   1.230  1.00  0.00     0.012 A 
HETATM   31  C41         0      -0.709   3.977   1.046  1.00  0.00     0.037 A 
HETATM   32  C42         0      -0.966   4.618  -0.165  1.00  0.00     0.065 A 
HETATM   33  C40         0      -1.613   3.933  -1.194  1.00  0.00     0.037 A 
HETATM   34  C34         0      -2.003   2.607  -1.011  1.00  0.00     0.012 A 
BRANCH  32  35
HETATM   35  O10         0      -0.584   5.912  -0.344  1.00  0.00    -0.361 OA
HETATM   36  H71         0      -0.840   6.196  -1.239  1.00  0.00     0.217 HD
ENDBRANCH  32  35
ENDBRANCH  14  29
ENDBRANCH  11  14
ENDBRANCH   5  10
BRANCH   8  37
HETATM   37  C27         0       6.028  -0.519  -0.988  1.00  0.00     0.120 C 
BRANCH  37  38
HETATM   38  S2          0       6.415   0.391   0.517  1.00  0.00    -0.085 SA
BRANCH  38  39
HETATM   39  C38         0       8.177   0.490   0.383  1.00  0.00     0.197 A 
HETATM   40  N17         0       8.935   0.010  -0.575  1.00  0.00    -0.135 NA
HETATM   41  N19         0      10.226   0.339  -0.227  1.00  0.00     0.018 NA
HETATM   42  N18         0      10.255   1.006   0.921  1.00  0.00    -0.003 NA
HETATM   43  N16         0       8.973   1.099   1.300  1.00  0.00    -0.259 N 
HETATM   44  C44         0       8.623   1.774   2.524  1.00  0.00     0.177 C 
ENDBRANCH  38  39
ENDBRANCH  37  38
ENDBRANCH   8  37
BRANCH   7  45
HETATM   45  C29         0       4.549  -2.780   0.276  1.00  0.00     0.194 C 
HETATM   46  O6          0       5.104  -2.528   1.327  1.00  0.00    -0.645 OA
BRANCH  45  47
HETATM   47  O5          0       4.453  -3.993  -0.304  1.00  0.00    -0.772 OA
HETATM   48  H58         0       4.895  -4.691   0.224  1.00  0.00     0.167 HD
ENDBRANCH  45  47
ENDBRANCH   7  45
TORSDOF 11
