REMARK  9 active torsions:
REMARK  status: ('A' for Active; 'I' for Inactive)
REMARK    1  A    between atoms: O4_4  and  C20_20 
REMARK    2  A    between atoms: O5_5  and  C21_21 
REMARK    3  A    between atoms: O8_8  and  N11_11 
REMARK       I    between atoms: N10_10  and  C22_22 
REMARK    4  A    between atoms: N10_10  and  C15_15 
REMARK    5  A    between atoms: N13_13  and  C27_27 
REMARK    6  A    between atoms: C17_17  and  C21_21 
REMARK    7  A    between atoms: C18_18  and  C20_20 
REMARK    8  A    between atoms: C22_22  and  C23_23 
REMARK    9  A    between atoms: C23_23  and  C24_24 
ROOT
HETATM    1  S1          0      -1.323   0.812  -2.055  1.00  0.00    -0.136 SA
HETATM    2  O3          0      -0.764   0.686   2.558  1.00  0.00    -0.271 OA
HETATM    3  N9          0      -1.953   0.757   0.523  1.00  0.00    -0.293 N 
HETATM    4  C14         0      -1.531   1.701  -0.495  1.00  0.00     0.187 C 
HETATM    5  C15         0      -0.258   1.902   0.355  1.00  0.00     0.211 C 
HETATM    6  C16         0      -0.988   1.041   1.425  1.00  0.00     0.251 C 
HETATM    7  C17         0      -3.026  -0.065   0.393  1.00  0.00     0.117 C 
HETATM    8  C18         0      -3.611  -0.278  -0.810  1.00  0.00    -0.013 C 
HETATM    9  C19         0      -3.071   0.291  -2.120  1.00  0.00     0.115 C 
ENDROOT
BRANCH   8  10
HETATM   10  C20         0      -4.853  -1.110  -1.024  1.00  0.00     0.204 C 
BRANCH  10  11
HETATM   11  O4          0      -5.862  -0.306  -1.597  1.00  0.00    -0.392 OA
HETATM   12  C25         0      -7.062  -1.040  -1.823  1.00  0.00     0.201 C 
ENDBRANCH  10  11
ENDBRANCH   8  10
BRANCH   5  13
HETATM   13  N10         0       0.997   1.314  -0.112  1.00  0.00    -0.339 N 
HETATM   14  C22         0       2.114   1.194   0.698  1.00  0.00     0.275 C 
HETATM   15  O7          0       2.247   1.531   1.863  1.00  0.00    -0.266 OA
HETATM   16  H33         0       1.069   0.979  -1.069  1.00  0.00     0.163 HD
BRANCH  14  17
HETATM   17  C23         0       3.286   0.560  -0.005  1.00  0.00     0.180 C 
HETATM   18  N11         0       4.139   1.300  -0.647  1.00  0.00    -0.126 NA
BRANCH  17  19
HETATM   19  C24         0       3.489  -0.892   0.008  1.00  0.00     0.102 A 
HETATM   20  N12         0       4.567  -1.420  -0.644  1.00  0.00    -0.222 NA
HETATM   21  C27         0       4.530  -2.725  -0.488  1.00  0.00     0.164 A 
HETATM   22  S2          0       3.221  -3.348   0.431  1.00  0.00    -0.062 SA
HETATM   23  C26         0       2.644  -1.748   0.648  1.00  0.00     0.087 A 
BRANCH  21  24
HETATM   24  N13         0       5.448  -3.584  -1.003  1.00  0.00    -0.378 N 
HETATM   25  H41         0       6.236  -3.258  -1.553  1.00  0.00     0.158 HD
HETATM   26  H42         0       5.382  -4.586  -0.860  1.00  0.00     0.158 HD
ENDBRANCH  21  24
ENDBRANCH  17  19
BRANCH  18  27
HETATM   27  O8          0       3.808   2.660  -0.574  1.00  0.00    -0.261 OA
HETATM   28  C28         0       4.786   3.391  -1.297  1.00  0.00     0.240 C 
ENDBRANCH  18  27
ENDBRANCH  14  17
ENDBRANCH   5  13
BRANCH   7  29
HETATM   29  C21         0      -3.483  -0.763   1.603  1.00  0.00     0.194 C 
HETATM   30  O6          0      -3.047  -1.831   1.983  1.00  0.00    -0.645 OA
BRANCH  29  31
HETATM   31  O5          0      -4.444  -0.034   2.205  1.00  0.00    -0.772 OA
HETATM   32  H36         0      -4.779  -0.465   3.019  1.00  0.00     0.167 HD
ENDBRANCH  29  31
ENDBRANCH   7  29
TORSDOF 9
