REMARK  10 active torsions:
REMARK  status: ('A' for Active; 'I' for Inactive)
REMARK    1  A    between atoms: O4_4  and  C26_26 
REMARK    2  A    between atoms: O4_4  and  C21_21 
REMARK    3  A    between atoms: O5_5  and  C22_22 
REMARK    4  A    between atoms: O8_8  and  N12_12 
REMARK       I    between atoms: N11_11  and  C23_23 
REMARK    5  A    between atoms: N11_11  and  C16_16 
REMARK    6  A    between atoms: N14_14  and  C29_29 
REMARK    7  A    between atoms: C18_18  and  C22_22 
REMARK    8  A    between atoms: C19_19  and  C21_21 
REMARK    9  A    between atoms: C23_23  and  C24_24 
REMARK   10  A    between atoms: C24_24  and  C25_25 
ROOT
HETATM    1  S1          0      -0.919   0.759  -1.926  1.00  0.00    -0.136 SA
HETATM    2  O3          0      -0.041   0.973   2.635  1.00  0.00    -0.271 OA
HETATM    3  N10         0      -1.368   0.931   0.686  1.00  0.00    -0.293 N 
HETATM    4  C15         0      -0.987   1.775  -0.432  1.00  0.00     0.187 C 
HETATM    5  C16         0       0.349   1.992   0.311  1.00  0.00     0.211 C 
HETATM    6  C17         0      -0.332   1.246   1.494  1.00  0.00     0.251 C 
HETATM    7  C18         0      -2.474   0.144   0.694  1.00  0.00     0.117 C 
HETATM    8  C19         0      -3.150  -0.139  -0.445  1.00  0.00    -0.013 C 
HETATM    9  C20         0      -2.684   0.304  -1.830  1.00  0.00     0.115 C 
ENDROOT
BRANCH   8  10
HETATM   10  C21         0      -4.431  -0.936  -0.506  1.00  0.00     0.216 C 
BRANCH  10  11
HETATM   11  O4          0      -5.450  -0.140  -1.074  1.00  0.00    -0.317 OA
BRANCH  11  12
HETATM   12  C26         0      -6.681  -0.732  -1.196  1.00  0.00     0.255 C 
HETATM   13  C28         0      -7.658   0.225  -1.810  1.00  0.00     0.126 C 
HETATM   14  O9          0      -6.962  -1.874  -0.859  1.00  0.00    -0.266 OA
ENDBRANCH  11  12
ENDBRANCH  10  11
ENDBRANCH   8  10
BRANCH   5  15
HETATM   15  N11         0       1.548   1.320  -0.190  1.00  0.00    -0.339 N 
HETATM   16  H35         0       1.541   0.908  -1.120  1.00  0.00     0.163 HD
HETATM   17  C23         0       2.713   1.220   0.549  1.00  0.00     0.275 C 
HETATM   18  O7          0       2.940   1.641   1.672  1.00  0.00    -0.266 OA
BRANCH  17  19
HETATM   19  C24         0       3.811   0.488  -0.178  1.00  0.00     0.180 C 
HETATM   20  N12         0       4.642   1.141  -0.933  1.00  0.00    -0.126 NA
BRANCH  19  21
HETATM   21  C25         0       3.966  -0.966  -0.061  1.00  0.00     0.102 A 
HETATM   22  N13         0       4.980  -1.616  -0.737  1.00  0.00    -0.222 NA
HETATM   23  C29         0       4.910  -2.902  -0.474  1.00  0.00     0.164 A 
HETATM   24  S2          0       3.649  -3.399   0.578  1.00  0.00    -0.062 SA
HETATM   25  C27         0       3.142  -1.766   0.704  1.00  0.00     0.087 A 
BRANCH  23  26
HETATM   26  N14         0       5.760  -3.834  -0.979  1.00  0.00    -0.378 N 
HETATM   27  H46         0       5.671  -4.819  -0.750  1.00  0.00     0.158 HD
HETATM   28  H47         0       6.519  -3.583  -1.605  1.00  0.00     0.158 HD
ENDBRANCH  23  26
ENDBRANCH  19  21
BRANCH  20  29
HETATM   29  O8          0       4.363   2.514  -0.948  1.00  0.00    -0.261 OA
HETATM   30  C30         0       5.312   3.148  -1.792  1.00  0.00     0.240 C 
ENDBRANCH  20  29
ENDBRANCH  17  19
ENDBRANCH   5  15
BRANCH   7  31
HETATM   31  C22         0      -2.868  -0.439   1.986  1.00  0.00     0.194 C 
HETATM   32  O6          0      -2.900  -1.631   2.217  1.00  0.00    -0.645 OA
BRANCH  31  33
HETATM   33  O5          0      -3.180   0.550   2.846  1.00  0.00    -0.772 OA
HETATM   34  H38         0      -3.449   0.205   3.724  1.00  0.00     0.167 HD
ENDBRANCH  31  33
ENDBRANCH   7  31
TORSDOF 10
