9870843
  -OEChem-08052513253D

 51 54  0     1  0  0  0  0  0999 V2000
    0.5350   -1.6757   -0.7698 S   0  0  0  0  0  0  0  0  0  0  0  0
   -4.6122   -0.3625   -1.7455 S   0  0  0  0  0  0  0  0  0  0  0  0
    6.1284   -2.4803    1.2275 S   0  0  0  0  0  0  0  0  0  0  0  0
   -0.7839    2.6105    0.4588 O   0  0  0  0  0  0  0  0  0  0  0  0
   -3.1815    1.6758    0.5323 O   0  0  0  0  0  0  0  0  0  0  0  0
   -3.6894   -0.0467    1.9484 O   0  0  0  0  0  0  0  0  0  0  0  0
    3.4430    1.1997   -2.1128 O   0  0  0  0  0  0  0  0  0  0  0  0
    4.2483    3.0957    0.2203 O   0  0  0  0  0  0  0  0  0  0  0  0
   -1.0595    0.3947   -0.3029 N   0  0  0  0  0  0  0  0  0  0  0  0
    1.9466    1.0091   -0.3143 N   0  0  0  0  0  0  0  0  0  0  0  0
    4.8650    1.9001    0.6144 N   0  0  0  0  0  0  0  0  0  0  0  0
    4.2411   -1.5958   -0.3017 N   0  0  0  0  0  0  0  0  0  0  0  0
   -5.9624    1.3213   -0.3229 N   0  0  0  0  0  0  0  0  0  0  0  0
    4.5236   -3.9431   -0.3090 N   0  0  0  0  0  0  0  0  0  0  0  0
   -0.1573   -0.1027   -1.3260 C   0  0  1  0  0  0  0  0  0  0  0  0
    0.6936    1.1562   -1.0527 C   0  0  1  0  0  0  0  0  0  0  0  0
   -0.4990    1.6166   -0.1674 C   0  0  0  0  0  0  0  0  0  0  0  0
   -2.0927   -0.3251    0.2097 C   0  0  0  0  0  0  0  0  0  0  0  0
   -1.0989   -2.4882   -0.6838 C   0  0  0  0  0  0  0  0  0  0  0  0
   -2.1752   -1.6648    0.0214 C   0  0  0  0  0  0  0  0  0  0  0  0
   -3.0788    0.4209    1.0101 C   0  0  0  0  0  0  0  0  0  0  0  0
    3.1866    1.0474   -0.9292 C   0  0  0  0  0  0  0  0  0  0  0  0
   -3.2763   -2.4922    0.4777 C   0  0  0  0  0  0  0  0  0  0  0  0
    4.3287    0.8682    0.0357 C   0  0  0  0  0  0  0  0  0  0  0  0
   -4.5479   -2.0967    0.4074 C   0  0  0  0  0  0  0  0  0  0  0  0
   -4.9898   -0.7982   -0.1303 C   0  0  0  0  0  0  0  0  0  0  0  0
    4.8240   -0.5062    0.3156 C   0  0  0  0  0  0  0  0  0  0  0  0
   -5.7073    0.2170    0.4668 C   0  0  0  0  0  0  0  0  0  0  0  0
    5.8616   -0.7869    1.1797 C   0  0  0  0  0  0  0  0  0  0  0  0
   -6.2198    0.2282    1.8536 C   0  0  0  0  0  0  0  0  0  0  0  0
    4.8480   -2.6890    0.1042 C   0  0  0  0  0  0  0  0  0  0  0  0
   -5.4322    1.1263   -1.5099 C   0  0  0  0  0  0  0  0  0  0  0  0
    4.8909    4.1664    0.8948 C   0  0  0  0  0  0  0  0  0  0  0  0
   -0.6126   -0.1226   -2.3233 H   0  0  0  0  0  0  0  0  0  0  0  0
    0.8127    1.7975   -1.9351 H   0  0  0  0  0  0  0  0  0  0  0  0
   -0.9342   -3.4362   -0.1599 H   0  0  0  0  0  0  0  0  0  0  0  0
   -1.4278   -2.7232   -1.7026 H   0  0  0  0  0  0  0  0  0  0  0  0
    1.9240    0.8660    0.6929 H   0  0  0  0  0  0  0  0  0  0  0  0
   -3.0419   -3.4663    0.8967 H   0  0  0  0  0  0  0  0  0  0  0  0
   -5.3245   -2.7388    0.8144 H   0  0  0  0  0  0  0  0  0  0  0  0
   -3.8113    2.2224    1.0489 H   0  0  0  0  0  0  0  0  0  0  0  0
    6.4630   -0.1098    1.7700 H   0  0  0  0  0  0  0  0  0  0  0  0
   -5.8334    1.0858    2.4139 H   0  0  0  0  0  0  0  0  0  0  0  0
   -7.3112    0.3289    1.8306 H   0  0  0  0  0  0  0  0  0  0  0  0
   -6.0042   -0.6903    2.4077 H   0  0  0  0  0  0  0  0  0  0  0  0
   -5.5040    1.8613   -2.2996 H   0  0  0  0  0  0  0  0  0  0  0  0
    4.4144    5.1024    0.5917 H   0  0  0  0  0  0  0  0  0  0  0  0
    5.9500    4.2069    0.6224 H   0  0  0  0  0  0  0  0  0  0  0  0
    4.7842    4.0525    1.9781 H   0  0  0  0  0  0  0  0  0  0  0  0
    3.7731   -4.1100   -0.9713 H   0  0  0  0  0  0  0  0  0  0  0  0
    5.0179   -4.7621    0.0295 H   0  0  0  0  0  0  0  0  0  0  0  0
  1 15  1  0  0  0  0
  1 19  1  0  0  0  0
  2 26  1  0  0  0  0
  2 32  1  0  0  0  0
  3 29  1  0  0  0  0
  3 31  1  0  0  0  0
  4 17  2  0  0  0  0
  5 21  1  0  0  0  0
  5 41  1  0  0  0  0
  6 21  2  0  0  0  0
  7 22  2  0  0  0  0
  8 11  1  0  0  0  0
  8 33  1  0  0  0  0
  9 15  1  0  0  0  0
  9 17  1  0  0  0  0
  9 18  1  0  0  0  0
 10 16  1  0  0  0  0
 10 22  1  0  0  0  0
 10 38  1  0  0  0  0
 11 24  2  0  0  0  0
 12 27  1  0  0  0  0
 12 31  2  0  0  0  0
 13 28  1  0  0  0  0
 13 32  2  0  0  0  0
 14 31  1  0  0  0  0
 14 50  1  0  0  0  0
 14 51  1  0  0  0  0
 15 16  1  0  0  0  0
 15 34  1  0  0  0  0
 16 17  1  0  0  0  0
 16 35  1  0  0  0  0
 18 20  2  0  0  0  0
 18 21  1  0  0  0  0
 19 20  1  0  0  0  0
 19 36  1  0  0  0  0
 19 37  1  0  0  0  0
 20 23  1  0  0  0  0
 22 24  1  0  0  0  0
 23 25  2  0  0  0  0
 23 39  1  0  0  0  0
 24 27  1  0  0  0  0
 25 26  1  0  0  0  0
 25 40  1  0  0  0  0
 26 28  2  0  0  0  0
 27 29  2  0  0  0  0
 28 30  1  0  0  0  0
 29 42  1  0  0  0  0
 30 43  1  0  0  0  0
 30 44  1  0  0  0  0
 30 45  1  0  0  0  0
 32 46  1  0  0  0  0
 33 47  1  0  0  0  0
 33 48  1  0  0  0  0
 33 49  1  0  0  0  0
M  END
> <PUBCHEM_COMPOUND_CID>
9870843

> <PUBCHEM_CONFORMER_RMSD>
1

> <PUBCHEM_CONFORMER_DIVERSEORDER>
1
21
7
15
12
22
10
23
2
16
24
20
25
27
13
6
19
26
9
8
14
18
17
28
5
11
3
4

> <PUBCHEM_MMFF94_PARTIAL_CHARGES>
41
1 -0.45
10 -0.65
11 -0.51
12 -0.57
13 -0.57
14 -0.88
15 0.44
16 0.28
17 0.58
18 0.12
19 0.37
2 -0.08
20 -0.14
21 0.71
22 0.63
23 -0.15
24 0.54
25 -0.11
26 -0.01
27 0.14
28 0.05
29 -0.11
3 -0.08
30 0.18
31 0.46
32 0.23
33 0.28
38 0.37
39 0.15
4 -0.57
40 0.15
41 0.5
42 0.15
46 0.15
5 -0.65
50 0.4
51 0.4
6 -0.57
7 -0.57
8 -0.22
9 -0.39

> <PUBCHEM_EFFECTIVE_ROTOR_COUNT>
8.6

> <PUBCHEM_PHARMACOPHORE_FEATURES>
14
1 10 donor
1 11 acceptor
1 13 acceptor
1 14 donor
1 4 acceptor
1 5 acceptor
1 6 acceptor
1 7 acceptor
3 12 14 31 cation
3 5 6 21 anion
4 9 15 16 17 rings
5 2 13 26 28 32 rings
5 3 12 27 29 31 rings
6 1 9 15 18 19 20 rings

> <PUBCHEM_HEAVY_ATOM_COUNT>
33

> <PUBCHEM_ATOM_DEF_STEREO_COUNT>
2

> <PUBCHEM_ATOM_UDEF_STEREO_COUNT>
0

> <PUBCHEM_BOND_DEF_STEREO_COUNT>
2

> <PUBCHEM_BOND_UDEF_STEREO_COUNT>
0

> <PUBCHEM_ISOTOPIC_ATOM_COUNT>
0

> <PUBCHEM_COMPONENT_COUNT>
1

> <PUBCHEM_CACTVS_TAUTO_COUNT>
4

> <PUBCHEM_CONFORMER_ID>
00969DFB00000001

> <PUBCHEM_MMFF94_ENERGY>
120.4046

> <PUBCHEM_FEATURE_SELFOVERLAP>
71.378

> <PUBCHEM_SHAPE_FINGERPRINT>
11135609 12 18040707066294133140
11135926 11 18263072388090267836
11756154 67 18191589649597044158
12107183 9 18196943162542476592
12422481 6 18113053826988693967
12788726 201 17203061750112183720
12925494 130 17837488557699853528
13533116 47 18409730651733934000
13782708 43 17168156675789201147
13785724 45 18127982901877624014
14856354 85 14490481859397135843
15001296 14 18335134310732504426
15183329 4 18334859420019597871
15361156 5 17749398070031934654
17349148 13 18272376381994959597
17857418 61 18409729543437290286
1813 80 17240204343862198430
19958102 18 18187354446496564215
20511986 3 18339349868198488990
21130935 74 18409453622143840411
21279426 13 18334571309392306983
21814621 53 18040997336953007497
21859007 373 17823402817305282581
22889206 1 17772453824218811584
23559900 14 18337667529577711234
3004659 81 18186803578349241766
32027 91 18335412431571897666
350125 39 18408885127434540902
3680242 22 18339092544149944433
404807 14 17405719077236140771
5104073 3 18338808908852390939
513202 73 17677053434607766013
86090 222 17603880957449835154

> <PUBCHEM_SHAPE_MULTIPOLES>
631.44
16.84
3.76
1.47
3.14
0.49
-0.07
-1.45
4.51
6.78
0.53
-1.01
0.19
0.05

> <PUBCHEM_SHAPE_SELFOVERLAP>
1342.216

> <PUBCHEM_SHAPE_VOLUME>
353.7

> <PUBCHEM_COORDINATE_TYPE>
2
5
10

$$$$
